Circuit: * C:\Users\Cameron\Documents\git\senior-design\GAINS_PCB\Simulations\Draft1.asc

Limiting rise time of source v2 to 0.005
Limiting fall time of source v2 to 0.005
Direct Newton iteration for .op point succeeded.

Date: Mon Jan 29 18:14:25 2024
Total elapsed time: 0.100 seconds.

tnom = 27
temp = 27
method = modified trap
totiter = 5785
traniter = 5773
tranpoints = 2240
accept = 2087
rejected = 153
matrix size = 7
fillins = 0
solver = Normal
Matrix Compiler1: 304 bytes object code size  0.1/0.0/[0.0]
Matrix Compiler2: off  [0.1]/0.1/0.1

