Circuit: * C:\Users\Cameron\Documents\git\senior-design\GAINS_PCB\Simulations\Draft2.asc

Direct Newton iteration for .op point succeeded.

Date: Tue Jan 30 02:46:00 2024
Total elapsed time: 0.096 seconds.

tnom = 27
temp = 27
method = modified trap
totiter = 6346
traniter = 6340
tranpoints = 2229
accept = 1894
rejected = 335
matrix size = 10
fillins = 0
solver = Normal
Matrix Compiler1: 462 bytes object code size  0.1/0.0/[0.0]
Matrix Compiler2: 774 bytes object code size  0.1/0.1/[0.1]

