Circuit: * C:\Users\Cameron\Documents\git\senior-design\Simulations\low_battery_indicator.asc

Direct Newton iteration for .op point succeeded.

Date: Fri Feb 02 20:30:23 2024
Total elapsed time: 0.070 seconds.

tnom = 27
temp = 27
method = modified trap
totiter = 8391
traniter = 8351
tranpoints = 2810
accept = 2271
rejected = 539
matrix size = 8
fillins = 0
solver = Normal
Matrix Compiler1:      16 opcodes  0.1/[0.0]/0.0
Matrix Compiler2: off  [0.1]/0.1/0.1

